/*--------------------------------*- C++ -*----------------------------------*\
| =========                 |                                                 |
| \\      /  F ield         | OpenFOAM: The Open Source CFD Toolbox           |
|  \\    /   O peration     | Version:  2.1.x                                 |
|   \\  /    A nd           | Web:      www.OpenFOAM.org                      |
|    \\/     M anipulation  |                                                 |
\*---------------------------------------------------------------------------*/
FoamFile
{
    version     2.0;
    format      ascii;
    class       dictionary;
    location    "constant";
    object      dynamicMeshDict;
}
// * * * * * * * * * * * * * * * * * * * * * * * * * * * * * * * * * * * * * //

dynamicFvMesh   dynamicRefineFvMesh;//staticFvMesh;

dynamicRefineFvMeshCoeffs
{
    // How often to refine
    refineInterval  1;
    // Field to be refinement on
    field           normalisedGradRho;
    // Refine field inbetween lower..upper
    lowerRefineLevel 0.2;
    upperRefineLevel 1.1;
    // If value < unrefineLevel unrefine
    unrefineLevel   10;
    // Have slower than 2:1 refinement
    nBufferLayers   1;
    // Refine cells only up to maxRefinement levels
    maxRefinement   2;
    // Stop refinement if maxCells reached
    maxCells        1000000;
    // Flux field and corresponding velocity field. Fluxes on changed
    // faces get recalculated by interpolating the velocity. Use 'none'
    // on surfaceScalarFields that do not need to be reinterpolated.
    correctFluxes
    (
        (phi_0 U_0)
        (phi U)
//        (phi_own U)
//        (phi_nei U)
//        (mDCf none)
  
    );
    // Write the refinement level as a volScalarField
    dumpLevel       true;
}


// ************************************************************************* //
