/*--------------------------------*- C++ -*----------------------------------*\
| =========                 |                                                 |
| \\      /  F ield         | OpenFOAM: The Open Source CFD Toolbox           |
|  \\    /   O peration     | Version:  2.2.0                                 |
|   \\  /    A nd           | Web:      www.OpenFOAM.org                      |
|    \\/     M anipulation  |                                                 |
\*---------------------------------------------------------------------------*/
FoamFile
{
    version     2.0;
    format      ascii;
    class       dictionary;
    location    "constant";
    object      chemistryProperties;
}
// * * * * * * * * * * * * * * * * * * * * * * * * * * * * * * * * * * * * * //

chemistryType
{
    chemistrySolver   ode;
//    chemistrySolver   EulerImplicit;
    chemistryThermo   psi;
}

chemistry           on;

initialChemicalTimeStep 1e-07;

sequentialCoeffs
{
    cTauChem        0.001;
}

EulerImplicitCoeffs
{
//    cTauChem        0.05;
    cTauChem        1;
    equilibriumRateLimiter off;
}

odeCoeffs
{
    solver          Rosenbrock34;
    absTol          1e-12;
    relTol          0.01;
//    eps             0.01;
//    scale           1;
}

// ************************************************************************* //
