/*--------------------------------*- C++ -*----------------------------------*\
| =========                 |                                                 |
| \\      /  F ield         | OpenFOAM: The Open Source CFD Toolbox           |
|  \\    /   O peration     | Version:  2.2.0                                 |
|   \\  /    A nd           | Web:      www.OpenFOAM.org                      |
|    \\/     M anipulation  |                                                 |
\*---------------------------------------------------------------------------*/
FoamFile
{
    version     2.0;
    format      ascii;
    class       dictionary;
    location    "constant";
    object      combustionProperties;
}
// * * * * * * * * * * * * * * * * * * * * * * * * * * * * * * * * * * * * * //

//combustionModel  PaSR<rhoChemistryCombustion>;
//combustionModel  PaSR<psiChemistryCombustion>;
//combustionModel  noCombustion<psiThermoCombustion>;
combustionModel  laminar<psiChemistryCombustion>;

active  on;

laminarCoeffs
{
}

PaSRCoeffs
{
    Cmix                1;
    turbulentReaction   off;
}


// ************************************************************************* //
